<?xml version="1.0" encoding="UTF-8"?>

<!-- generated on 2022-11-08 18:41:07 by Eclipse SUMO netedit Version v1_14_1+1789-6cfa3a18e2c
-->

<routes xmlns:xsi="http://www.w3.org/2001/XMLSchema-instance" xsi:noNamespaceSchemaLocation="http://sumo.dlr.de/xsd/routes_file.xsd">
    <!-- VTypes -->
    <vType id="t_constant_speed" minGap="0.00" maxSpeed="30.00" guiShape="passenger/van" color="yellow" maxSpeedLat="10.00" minGapLat="0.00" accel="10" decel="10" emergencyDecel="10" apparentDecel="10"/>
    <vType id="type_very_fast_car" minGap="0.00" maxSpeed="50.00" guiShape="passenger/van" color="red" maxSpeedLat="50.00" minGapLat="0.00" accel="20" decel="20" emergencyDecel="20" apparentDecel="10"/>
    <!-- Vehicles, persons and containers (sorted by depart) -->
    <trip id="t_0" type="type_very_fast_car" depart="0.00" from="-E1" to="E2"/>
    <trip id="t_1" type="t_constant_speed" depart="1.00" departSpeed="10.00" from="-E0" to="E1"/>
    <trip id="t_2" type="type_very_fast_car" depart="2.00" from="-E2" to="E0"/>
    <trip id="t_3" depart="3.00" from="-E3" to="E1"/>
</routes>
