<?xml version="1.0" encoding="UTF-8"?>

<!-- generated on 2022-10-23 15:43:46 by Eclipse SUMO netedit Version v1_14_1+1789-6cfa3a18e2c
<configuration xmlns:xsi="http://www.w3.org/2001/XMLSchema-instance" xsi:noNamespaceSchemaLocation="http://sumo.dlr.de/xsd/netconvertConfiguration.xsd">

    <output>
        <output-file value="/Users/Res_proj/Documents/Research/ns3-mmwave-old/examples/sumo-millicar/simple_rect/hello.net.xml"/>
    </output>

    <processing>
        <offset.disable-normalization value="true"/>
    </processing>

    <junctions>
        <no-turnarounds value="true"/>
    </junctions>

</configuration>
-->

<net version="1.9" junctionCornerDetail="5" limitTurnSpeed="5.50" xmlns:xsi="http://www.w3.org/2001/XMLSchema-instance" xsi:noNamespaceSchemaLocation="http://sumo.dlr.de/xsd/net_file.xsd">

    <location netOffset="0.00,0.00" convBoundary="0.00,0.00,100.00,100.00" origBoundary="10000000000.00,10000000000.00,-10000000000.00,-10000000000.00" projParameter="!"/>

    <edge id=":J5_0" function="internal">
        <lane id=":J5_0_0" index="0" speed="4.12" length="4.78" shape="100.00,-1.60 101.52,-1.43 102.21,-0.92 102.08,-0.06 101.13,1.13"/>
    </edge>
    <edge id=":J6_0" function="internal">
        <lane id=":J6_0_0" index="0" speed="4.12" length="4.79" shape="1.13,101.13 -0.07,102.09 -0.92,102.22 -1.43,101.52 -1.60,100.00"/>
    </edge>
    <edge id=":J7_0" function="internal">
        <lane id=":J7_0_0" index="0" speed="3.95" length="2.66" shape="-1.50,0.10 -1.40,-0.64 -1.10,-1.18 -0.60,-1.49 0.10,-1.60"/>
    </edge>

    <edge id="E4" from="J5" to="J6" priority="-1">
        <lane id="E4_0" index="0" speed="13.89" length="141.42" shape="101.13,1.13 1.13,101.13"/>
    </edge>
    <edge id="E5" from="J6" to="J7" priority="-1" shape="0.00,100.00 0.10,0.10">
        <lane id="E5_0" index="0" speed="13.89" length="99.90" shape="-1.60,100.00 -1.50,0.10"/>
    </edge>
    <edge id="E6" from="J7" to="J5" priority="-1">
        <lane id="E6_0" index="0" speed="13.89" length="99.90" shape="0.10,-1.60 100.00,-1.60"/>
    </edge>

    <junction id="J5" type="priority" x="100.00" y="0.00" incLanes="E6_0" intLanes=":J5_0_0" shape="100.00,-3.20 100.00,0.00 102.26,2.26 103.72,0.59 104.44,-0.77 104.43,-1.83 103.68,-2.59 102.21,-3.05">
        <request index="0" response="0" foes="0" cont="0"/>
    </junction>
    <junction id="J6" type="priority" x="0.00" y="100.00" incLanes="E4_0" intLanes=":J6_0_0" shape="2.26,102.26 0.00,100.00 -3.20,100.00 -3.05,102.21 -2.60,103.69 -1.84,104.43 -0.78,104.44 0.59,103.72">
        <request index="0" response="0" foes="0" cont="0"/>
    </junction>
    <junction id="J7" type="priority" x="0.00" y="0.00" incLanes="E5_0" intLanes=":J7_0_0" shape="-3.10,0.10 0.10,0.10 0.09,0.05 0.08,0.03 0.08,0.01 0.08,0.00 0.10,-3.20 -1.68,-2.83 -2.30,-2.38 -2.74,-1.73 -3.01,-0.91">
        <request index="0" response="0" foes="0" cont="0"/>
    </junction>

    <connection from="E4" to="E5" fromLane="0" toLane="0" via=":J6_0_0" dir="l" state="M"/>
    <connection from="E5" to="E6" fromLane="0" toLane="0" via=":J7_0_0" dir="l" state="M"/>
    <connection from="E6" to="E4" fromLane="0" toLane="0" via=":J5_0_0" dir="l" state="M"/>

    <connection from=":J5_0" to="E4" fromLane="0" toLane="0" dir="l" state="M"/>
    <connection from=":J6_0" to="E5" fromLane="0" toLane="0" dir="l" state="M"/>
    <connection from=":J7_0" to="E6" fromLane="0" toLane="0" dir="l" state="M"/>

</net>
