<?xml version="1.0" encoding="UTF-8"?>

<!-- generated on 2022-10-23 15:46:11 by Eclipse SUMO netedit Version v1_14_1+1789-6cfa3a18e2c
-->

<routes xmlns:xsi="http://www.w3.org/2001/XMLSchema-instance" xsi:noNamespaceSchemaLocation="http://sumo.dlr.de/xsd/routes_file.xsd">
    <!-- Routes -->
    <route id="r_0" edges="E4 E5 E6"/>
    <!-- Vehicles, persons and containers (sorted by depart) -->
    <trip id="t_0" depart="0.00" from="E4" to="E6" via="E5"/>
    <trip id="t_1" depart="20.00" from="E4" to="E6" via="E5"/>
</routes>
