<?xml version="1.0" encoding="UTF-8"?>

<!-- generated on 2022-10-24 09:58:58 by Eclipse SUMO netedit Version v1_14_1+1789-6cfa3a18e2c
<configuration xmlns:xsi="http://www.w3.org/2001/XMLSchema-instance" xsi:noNamespaceSchemaLocation="http://sumo.dlr.de/xsd/netconvertConfiguration.xsd">

    <input>
        <sumo-net-file value="/Users/Res_proj/Documents/Research/ns3-mmwave-old/examples/sumo-millicar/circle-simple/circle.net.xml"/>
    </input>

    <output>
        <output-file value="/Users/Res_proj/Documents/Research/ns3-mmwave-old/examples/sumo-millicar/circle-simple/circle.net.xml"/>
    </output>

    <processing>
        <geometry.min-radius.fix.railways value="false"/>
        <geometry.max-grade.fix value="false"/>
        <offset.disable-normalization value="true"/>
        <lefthand value="0"/>
    </processing>

    <junctions>
        <no-turnarounds value="true"/>
        <junctions.corner-detail value="0"/>
        <junctions.limit-turn-speed value="-1.00"/>
        <rectangular-lane-cut value="0"/>
    </junctions>

    <pedestrian>
        <walkingareas value="0"/>
    </pedestrian>

</configuration>
-->

<net version="1.9" xmlns:xsi="http://www.w3.org/2001/XMLSchema-instance" xsi:noNamespaceSchemaLocation="http://sumo.dlr.de/xsd/net_file.xsd">

    <location netOffset="70.70,70.70" convBoundary="0.00,0.00,141.40,141.40" origBoundary="-70.70,-70.70,70.70,70.70" projParameter="!"/>

    <edge id=":n1_0" function="internal">
        <lane id=":n1_0_0" index="0" speed="100.00" length="1.90" shape="142.84,69.76 142.95,70.31 142.98,70.70 142.95,71.09 142.84,71.64"/>
    </edge>
    <edge id=":n1_1" function="internal">
        <lane id=":n1_1_0" index="0" speed="100.00" length="0.63" shape="139.71,71.01 139.74,70.83 139.75,70.70 139.74,70.57 139.71,70.39"/>
    </edge>
    <edge id=":n10_0" function="internal">
        <lane id=":n10_0_0" index="0" speed="100.00" length="0.63" shape="7.08,43.96 6.98,44.12 6.92,44.23 6.88,44.35 6.84,44.54"/>
    </edge>
    <edge id=":n10_1" function="internal">
        <lane id=":n10_1_0" index="0" speed="100.00" length="1.89" shape="3.71,43.91 3.82,43.36 3.94,42.99 4.12,42.65 4.42,42.18"/>
    </edge>
    <edge id=":n11_0" function="internal">
        <lane id=":n11_0_0" index="0" speed="100.00" length="0.62" shape="22.11,21.67 21.96,21.78 21.87,21.86 21.79,21.96 21.69,22.11"/>
    </edge>
    <edge id=":n11_1" function="internal">
        <lane id=":n11_1_0" index="0" speed="100.00" length="1.85" shape="19.02,20.33 19.33,19.88 19.58,19.59 19.86,19.34 20.31,19.03"/>
    </edge>
    <edge id=":n12_0" function="internal">
        <lane id=":n12_0_0" index="0" speed="100.00" length="0.66" shape="44.55,6.55 44.36,6.59 44.23,6.63 44.11,6.69 43.95,6.80"/>
    </edge>
    <edge id=":n12_1" function="internal">
        <lane id=":n12_1_0" index="0" speed="100.00" length="1.99" shape="42.15,4.15 42.64,3.83 43.00,3.64 43.38,3.52 43.96,3.40"/>
    </edge>
    <edge id=":n13_0" function="internal">
        <lane id=":n13_0_0" index="0" speed="100.00" length="0.60" shape="71.00,1.68 70.82,1.65 70.70,1.64 70.58,1.65 70.40,1.68"/>
    </edge>
    <edge id=":n13_1" function="internal">
        <lane id=":n13_1_0" index="0" speed="100.00" length="1.79" shape="69.81,-1.46 70.34,-1.55 70.70,-1.58 71.06,-1.55 71.59,-1.46"/>
    </edge>
    <edge id=":n14_0" function="internal">
        <lane id=":n14_0_0" index="0" speed="100.00" length="0.66" shape="97.45,6.80 97.29,6.69 97.17,6.63 97.04,6.59 96.85,6.55"/>
    </edge>
    <edge id=":n14_1" function="internal">
        <lane id=":n14_1_0" index="0" speed="100.00" length="1.99" shape="97.44,3.40 98.02,3.52 98.40,3.64 98.76,3.83 99.25,4.15"/>
    </edge>
    <edge id=":n15_0" function="internal">
        <lane id=":n15_0_0" index="0" speed="100.00" length="0.62" shape="119.71,22.11 119.61,21.96 119.53,21.86 119.44,21.78 119.29,21.67"/>
    </edge>
    <edge id=":n15_1" function="internal">
        <lane id=":n15_1_0" index="0" speed="100.00" length="1.85" shape="121.09,19.03 121.54,19.34 121.82,19.59 122.07,19.88 122.38,20.33"/>
    </edge>
    <edge id=":n16_0" function="internal">
        <lane id=":n16_0_0" index="0" speed="100.00" length="0.63" shape="134.56,44.54 134.52,44.35 134.48,44.23 134.42,44.12 134.32,43.96"/>
    </edge>
    <edge id=":n16_1" function="internal">
        <lane id=":n16_1_0" index="0" speed="100.00" length="1.89" shape="136.98,42.18 137.28,42.65 137.46,42.99 137.58,43.36 137.69,43.91"/>
    </edge>
    <edge id=":n2_0" function="internal">
        <lane id=":n2_0_0" index="0" speed="100.00" length="1.89" shape="137.69,97.49 137.58,98.04 137.46,98.41 137.28,98.75 136.98,99.22"/>
    </edge>
    <edge id=":n2_1" function="internal">
        <lane id=":n2_1_0" index="0" speed="100.00" length="0.63" shape="134.32,97.44 134.42,97.28 134.48,97.17 134.52,97.05 134.56,96.86"/>
    </edge>
    <edge id=":n3_0" function="internal">
        <lane id=":n3_0_0" index="0" speed="100.00" length="1.85" shape="122.38,121.07 122.07,121.52 121.82,121.81 121.54,122.06 121.09,122.37"/>
    </edge>
    <edge id=":n3_1" function="internal">
        <lane id=":n3_1_0" index="0" speed="100.00" length="0.62" shape="119.29,119.73 119.44,119.62 119.53,119.54 119.61,119.44 119.71,119.29"/>
    </edge>
    <edge id=":n4_0" function="internal">
        <lane id=":n4_0_0" index="0" speed="100.00" length="1.99" shape="99.25,137.25 98.76,137.57 98.40,137.76 98.02,137.88 97.44,138.00"/>
    </edge>
    <edge id=":n4_1" function="internal">
        <lane id=":n4_1_0" index="0" speed="100.00" length="0.66" shape="96.85,134.85 97.04,134.81 97.17,134.77 97.29,134.71 97.45,134.60"/>
    </edge>
    <edge id=":n5_0" function="internal">
        <lane id=":n5_0_0" index="0" speed="100.00" length="1.79" shape="71.59,142.86 71.06,142.95 70.70,142.98 70.34,142.95 69.81,142.86"/>
    </edge>
    <edge id=":n5_1" function="internal">
        <lane id=":n5_1_0" index="0" speed="100.00" length="0.60" shape="70.40,139.72 70.58,139.75 70.70,139.76 70.82,139.75 71.00,139.72"/>
    </edge>
    <edge id=":n6_0" function="internal">
        <lane id=":n6_0_0" index="0" speed="100.00" length="1.99" shape="43.96,138.00 43.38,137.88 43.00,137.76 42.64,137.57 42.15,137.25"/>
    </edge>
    <edge id=":n6_1" function="internal">
        <lane id=":n6_1_0" index="0" speed="100.00" length="0.66" shape="43.95,134.60 44.11,134.71 44.23,134.77 44.36,134.81 44.55,134.85"/>
    </edge>
    <edge id=":n7_0" function="internal">
        <lane id=":n7_0_0" index="0" speed="100.00" length="1.85" shape="20.31,122.37 19.86,122.06 19.58,121.81 19.33,121.52 19.02,121.07"/>
    </edge>
    <edge id=":n7_1" function="internal">
        <lane id=":n7_1_0" index="0" speed="100.00" length="0.62" shape="21.69,119.29 21.79,119.44 21.87,119.54 21.96,119.62 22.11,119.73"/>
    </edge>
    <edge id=":n8_0" function="internal">
        <lane id=":n8_0_0" index="0" speed="100.00" length="1.89" shape="4.42,99.22 4.12,98.75 3.94,98.41 3.82,98.04 3.71,97.49"/>
    </edge>
    <edge id=":n8_1" function="internal">
        <lane id=":n8_1_0" index="0" speed="100.00" length="0.63" shape="6.84,96.86 6.88,97.05 6.92,97.17 6.98,97.28 7.08,97.44"/>
    </edge>
    <edge id=":n9_0" function="internal">
        <lane id=":n9_0_0" index="0" speed="100.00" length="1.90" shape="-1.44,71.64 -1.55,71.09 -1.58,70.70 -1.55,70.31 -1.44,69.76"/>
    </edge>
    <edge id=":n9_1" function="internal">
        <lane id=":n9_1_0" index="0" speed="100.00" length="0.63" shape="1.69,70.39 1.66,70.57 1.65,70.70 1.66,70.83 1.69,71.01"/>
    </edge>

    <edge id="-e1" from="n2" to="n1" priority="-1">
        <lane id="-e1_0" index="0" speed="100.00" length="26.36" shape="134.56,96.86 139.71,71.01"/>
    </edge>
    <edge id="-e10" from="n11" to="n10" priority="-1">
        <lane id="-e10_0" index="0" speed="100.00" length="26.28" shape="21.69,22.11 7.08,43.96"/>
    </edge>
    <edge id="-e11" from="n12" to="n11" priority="-1">
        <lane id="-e11_0" index="0" speed="100.00" length="26.42" shape="43.95,6.80 22.11,21.67"/>
    </edge>
    <edge id="-e12" from="n13" to="n12" priority="-1">
        <lane id="-e12_0" index="0" speed="100.00" length="26.30" shape="70.40,1.68 44.55,6.55"/>
    </edge>
    <edge id="-e13" from="n14" to="n13" priority="-1">
        <lane id="-e13_0" index="0" speed="100.00" length="26.30" shape="96.85,6.55 71.00,1.68"/>
    </edge>
    <edge id="-e14" from="n15" to="n14" priority="-1">
        <lane id="-e14_0" index="0" speed="100.00" length="26.42" shape="119.29,21.67 97.45,6.80"/>
    </edge>
    <edge id="-e15" from="n16" to="n15" priority="-1">
        <lane id="-e15_0" index="0" speed="100.00" length="26.28" shape="134.32,43.96 119.71,22.11"/>
    </edge>
    <edge id="-e16" from="n1" to="n16" priority="-1">
        <lane id="-e16_0" index="0" speed="100.00" length="26.36" shape="139.71,70.39 134.56,44.54"/>
    </edge>
    <edge id="-e2" from="n3" to="n2" priority="-1">
        <lane id="-e2_0" index="0" speed="100.00" length="26.28" shape="119.71,119.29 134.32,97.44"/>
    </edge>
    <edge id="-e3" from="n4" to="n3" priority="-1">
        <lane id="-e3_0" index="0" speed="100.00" length="26.42" shape="97.45,134.60 119.29,119.73"/>
    </edge>
    <edge id="-e4" from="n5" to="n4" priority="-1">
        <lane id="-e4_0" index="0" speed="100.00" length="26.30" shape="71.00,139.72 96.85,134.85"/>
    </edge>
    <edge id="-e5" from="n6" to="n5" priority="-1">
        <lane id="-e5_0" index="0" speed="100.00" length="26.30" shape="44.55,134.85 70.40,139.72"/>
    </edge>
    <edge id="-e6" from="n7" to="n6" priority="-1">
        <lane id="-e6_0" index="0" speed="100.00" length="26.42" shape="22.11,119.73 43.95,134.60"/>
    </edge>
    <edge id="-e7" from="n8" to="n7" priority="-1">
        <lane id="-e7_0" index="0" speed="100.00" length="26.28" shape="7.08,97.44 21.69,119.29"/>
    </edge>
    <edge id="-e8" from="n9" to="n8" priority="-1">
        <lane id="-e8_0" index="0" speed="100.00" length="26.36" shape="1.69,71.01 6.84,96.86"/>
    </edge>
    <edge id="-e9" from="n10" to="n9" priority="-1">
        <lane id="-e9_0" index="0" speed="100.00" length="26.36" shape="6.84,44.54 1.69,70.39"/>
    </edge>
    <edge id="e1" from="n1" to="n2" priority="-1">
        <lane id="e1_0" index="0" speed="100.00" length="26.36" shape="142.84,71.64 137.69,97.49"/>
    </edge>
    <edge id="e10" from="n10" to="n11" priority="-1">
        <lane id="e10_0" index="0" speed="100.00" length="26.28" shape="4.42,42.18 19.02,20.33"/>
    </edge>
    <edge id="e11" from="n11" to="n12" priority="-1">
        <lane id="e11_0" index="0" speed="100.00" length="26.42" shape="20.31,19.03 42.15,4.15"/>
    </edge>
    <edge id="e12" from="n12" to="n13" priority="-1">
        <lane id="e12_0" index="0" speed="100.00" length="26.30" shape="43.96,3.40 69.81,-1.46"/>
    </edge>
    <edge id="e13" from="n13" to="n14" priority="-1">
        <lane id="e13_0" index="0" speed="100.00" length="26.30" shape="71.59,-1.46 97.44,3.40"/>
    </edge>
    <edge id="e14" from="n14" to="n15" priority="-1">
        <lane id="e14_0" index="0" speed="100.00" length="26.42" shape="99.25,4.15 121.09,19.03"/>
    </edge>
    <edge id="e15" from="n15" to="n16" priority="-1">
        <lane id="e15_0" index="0" speed="100.00" length="26.28" shape="122.38,20.33 136.98,42.18"/>
    </edge>
    <edge id="e16" from="n16" to="n1" priority="-1">
        <lane id="e16_0" index="0" speed="100.00" length="26.36" shape="137.69,43.91 142.84,69.76"/>
    </edge>
    <edge id="e2" from="n2" to="n3" priority="-1">
        <lane id="e2_0" index="0" speed="100.00" length="26.28" shape="136.98,99.22 122.38,121.07"/>
    </edge>
    <edge id="e3" from="n3" to="n4" priority="-1">
        <lane id="e3_0" index="0" speed="100.00" length="26.42" shape="121.09,122.37 99.25,137.25"/>
    </edge>
    <edge id="e4" from="n4" to="n5" priority="-1">
        <lane id="e4_0" index="0" speed="100.00" length="26.30" shape="97.44,138.00 71.59,142.86"/>
    </edge>
    <edge id="e5" from="n5" to="n6" priority="-1">
        <lane id="e5_0" index="0" speed="100.00" length="26.30" shape="69.81,142.86 43.96,138.00"/>
    </edge>
    <edge id="e6" from="n6" to="n7" priority="-1">
        <lane id="e6_0" index="0" speed="100.00" length="26.42" shape="42.15,137.25 20.31,122.37"/>
    </edge>
    <edge id="e7" from="n7" to="n8" priority="-1">
        <lane id="e7_0" index="0" speed="100.00" length="26.28" shape="19.02,121.07 4.42,99.22"/>
    </edge>
    <edge id="e8" from="n8" to="n9" priority="-1">
        <lane id="e8_0" index="0" speed="100.00" length="26.36" shape="3.71,97.49 -1.44,71.64"/>
    </edge>
    <edge id="e9" from="n9" to="n10" priority="-1">
        <lane id="e9_0" index="0" speed="100.00" length="26.36" shape="-1.44,69.76 3.71,43.91"/>
    </edge>

    <junction id="n1" type="priority" x="141.40" y="70.70" incLanes="e16_0 -e1_0" intLanes=":n1_0_0 :n1_1_0" shape="144.41,69.45 138.14,70.70 144.41,71.95">
        <request index="0" response="00" foes="00" cont="0"/>
        <request index="1" response="00" foes="00" cont="0"/>
    </junction>
    <junction id="n10" type="priority" x="5.40" y="43.60" incLanes="-e10_0 e9_0" intLanes=":n10_0_0 :n10_1_0" shape="8.41,44.85 3.09,41.29 2.14,43.60">
        <request index="0" response="00" foes="00" cont="0"/>
        <request index="1" response="00" foes="00" cont="0"/>
    </junction>
    <junction id="n11" type="priority" x="20.70" y="20.70" incLanes="-e11_0 e10_0" intLanes=":n11_0_0 :n11_1_0" shape="23.02,22.99 19.41,17.71 17.69,19.44">
        <request index="0" response="00" foes="00" cont="0"/>
        <request index="1" response="00" foes="00" cont="0"/>
    </junction>
    <junction id="n12" type="priority" x="43.60" y="5.10" incLanes="-e12_0 e11_0" intLanes=":n12_0_0 :n12_1_0" shape="44.85,8.12 43.67,1.83 41.25,2.83">
        <request index="0" response="00" foes="00" cont="0"/>
        <request index="1" response="00" foes="00" cont="0"/>
    </junction>
    <junction id="n13" type="priority" x="70.70" y="0.00" incLanes="-e13_0 e12_0" intLanes=":n13_0_0 :n13_1_0" shape="70.70,3.26 71.88,-3.03 69.52,-3.03">
        <request index="0" response="00" foes="00" cont="0"/>
        <request index="1" response="00" foes="00" cont="0"/>
    </junction>
    <junction id="n14" type="priority" x="97.80" y="5.10" incLanes="-e14_0 e13_0" intLanes=":n14_0_0 :n14_1_0" shape="96.55,8.12 100.15,2.83 97.73,1.83">
        <request index="0" response="00" foes="00" cont="0"/>
        <request index="1" response="00" foes="00" cont="0"/>
    </junction>
    <junction id="n15" type="priority" x="120.70" y="20.70" incLanes="-e15_0 e14_0" intLanes=":n15_0_0 :n15_1_0" shape="118.38,22.99 123.71,19.44 121.99,17.71">
        <request index="0" response="00" foes="00" cont="0"/>
        <request index="1" response="00" foes="00" cont="0"/>
    </junction>
    <junction id="n16" type="priority" x="136.00" y="43.60" incLanes="-e16_0 e15_0" intLanes=":n16_0_0 :n16_1_0" shape="132.99,44.85 139.26,43.60 138.31,41.29">
        <request index="0" response="00" foes="00" cont="0"/>
        <request index="1" response="00" foes="00" cont="0"/>
    </junction>
    <junction id="n2" type="priority" x="136.00" y="97.80" incLanes="e1_0 -e2_0" intLanes=":n2_0_0 :n2_1_0" shape="139.26,97.80 132.99,96.55 138.31,100.11">
        <request index="0" response="00" foes="00" cont="0"/>
        <request index="1" response="00" foes="00" cont="0"/>
    </junction>
    <junction id="n3" type="priority" x="120.70" y="120.70" incLanes="e2_0 -e3_0" intLanes=":n3_0_0 :n3_1_0" shape="123.71,121.96 118.38,118.41 121.99,123.69">
        <request index="0" response="00" foes="00" cont="0"/>
        <request index="1" response="00" foes="00" cont="0"/>
    </junction>
    <junction id="n4" type="priority" x="97.80" y="136.30" incLanes="e3_0 -e4_0" intLanes=":n4_0_0 :n4_1_0" shape="100.15,138.57 96.55,133.28 97.73,139.57">
        <request index="0" response="00" foes="00" cont="0"/>
        <request index="1" response="00" foes="00" cont="0"/>
    </junction>
    <junction id="n5" type="priority" x="70.70" y="141.40" incLanes="e4_0 -e5_0" intLanes=":n5_0_0 :n5_1_0" shape="71.88,144.43 70.70,138.14 69.52,144.43">
        <request index="0" response="00" foes="00" cont="0"/>
        <request index="1" response="00" foes="00" cont="0"/>
    </junction>
    <junction id="n6" type="priority" x="43.60" y="136.30" incLanes="e5_0 -e6_0" intLanes=":n6_0_0 :n6_1_0" shape="43.67,139.57 44.85,133.28 41.25,138.57">
        <request index="0" response="00" foes="00" cont="0"/>
        <request index="1" response="00" foes="00" cont="0"/>
    </junction>
    <junction id="n7" type="priority" x="20.70" y="120.70" incLanes="e6_0 -e7_0" intLanes=":n7_0_0 :n7_1_0" shape="19.41,123.69 23.02,118.41 17.69,121.96">
        <request index="0" response="00" foes="00" cont="0"/>
        <request index="1" response="00" foes="00" cont="0"/>
    </junction>
    <junction id="n8" type="priority" x="5.40" y="97.80" incLanes="e7_0 -e8_0" intLanes=":n8_0_0 :n8_1_0" shape="3.09,100.11 8.41,96.55 2.14,97.80">
        <request index="0" response="00" foes="00" cont="0"/>
        <request index="1" response="00" foes="00" cont="0"/>
    </junction>
    <junction id="n9" type="priority" x="0.00" y="70.70" incLanes="e8_0 -e9_0" intLanes=":n9_0_0 :n9_1_0" shape="-3.01,71.95 3.26,70.70 -3.01,69.45">
        <request index="0" response="00" foes="00" cont="0"/>
        <request index="1" response="00" foes="00" cont="0"/>
    </junction>

    <connection from="-e1" to="-e16" fromLane="0" toLane="0" via=":n1_1_0" dir="s" state="M"/>
    <connection from="-e10" to="-e9" fromLane="0" toLane="0" via=":n10_0_0" dir="s" state="M"/>
    <connection from="-e11" to="-e10" fromLane="0" toLane="0" via=":n11_0_0" dir="s" state="M"/>
    <connection from="-e12" to="-e11" fromLane="0" toLane="0" via=":n12_0_0" dir="s" state="M"/>
    <connection from="-e13" to="-e12" fromLane="0" toLane="0" via=":n13_0_0" dir="s" state="M"/>
    <connection from="-e14" to="-e13" fromLane="0" toLane="0" via=":n14_0_0" dir="s" state="M"/>
    <connection from="-e15" to="-e14" fromLane="0" toLane="0" via=":n15_0_0" dir="s" state="M"/>
    <connection from="-e16" to="-e15" fromLane="0" toLane="0" via=":n16_0_0" dir="s" state="M"/>
    <connection from="-e2" to="-e1" fromLane="0" toLane="0" via=":n2_1_0" dir="s" state="M"/>
    <connection from="-e3" to="-e2" fromLane="0" toLane="0" via=":n3_1_0" dir="s" state="M"/>
    <connection from="-e4" to="-e3" fromLane="0" toLane="0" via=":n4_1_0" dir="s" state="M"/>
    <connection from="-e5" to="-e4" fromLane="0" toLane="0" via=":n5_1_0" dir="s" state="M"/>
    <connection from="-e6" to="-e5" fromLane="0" toLane="0" via=":n6_1_0" dir="s" state="M"/>
    <connection from="-e7" to="-e6" fromLane="0" toLane="0" via=":n7_1_0" dir="s" state="M"/>
    <connection from="-e8" to="-e7" fromLane="0" toLane="0" via=":n8_1_0" dir="s" state="M"/>
    <connection from="-e9" to="-e8" fromLane="0" toLane="0" via=":n9_1_0" dir="s" state="M"/>
    <connection from="e1" to="e2" fromLane="0" toLane="0" via=":n2_0_0" dir="s" state="M"/>
    <connection from="e10" to="e11" fromLane="0" toLane="0" via=":n11_1_0" dir="s" state="M"/>
    <connection from="e11" to="e12" fromLane="0" toLane="0" via=":n12_1_0" dir="s" state="M"/>
    <connection from="e12" to="e13" fromLane="0" toLane="0" via=":n13_1_0" dir="s" state="M"/>
    <connection from="e13" to="e14" fromLane="0" toLane="0" via=":n14_1_0" dir="s" state="M"/>
    <connection from="e14" to="e15" fromLane="0" toLane="0" via=":n15_1_0" dir="s" state="M"/>
    <connection from="e15" to="e16" fromLane="0" toLane="0" via=":n16_1_0" dir="s" state="M"/>
    <connection from="e16" to="e1" fromLane="0" toLane="0" via=":n1_0_0" dir="s" state="M"/>
    <connection from="e2" to="e3" fromLane="0" toLane="0" via=":n3_0_0" dir="s" state="M"/>
    <connection from="e3" to="e4" fromLane="0" toLane="0" via=":n4_0_0" dir="s" state="M"/>
    <connection from="e4" to="e5" fromLane="0" toLane="0" via=":n5_0_0" dir="s" state="M"/>
    <connection from="e5" to="e6" fromLane="0" toLane="0" via=":n6_0_0" dir="s" state="M"/>
    <connection from="e6" to="e7" fromLane="0" toLane="0" via=":n7_0_0" dir="s" state="M"/>
    <connection from="e7" to="e8" fromLane="0" toLane="0" via=":n8_0_0" dir="s" state="M"/>
    <connection from="e8" to="e9" fromLane="0" toLane="0" via=":n9_0_0" dir="s" state="M"/>
    <connection from="e9" to="e10" fromLane="0" toLane="0" via=":n10_1_0" dir="s" state="M"/>

    <connection from=":n1_0" to="e1" fromLane="0" toLane="0" dir="s" state="M"/>
    <connection from=":n1_1" to="-e16" fromLane="0" toLane="0" dir="s" state="M"/>
    <connection from=":n10_0" to="-e9" fromLane="0" toLane="0" dir="s" state="M"/>
    <connection from=":n10_1" to="e10" fromLane="0" toLane="0" dir="s" state="M"/>
    <connection from=":n11_0" to="-e10" fromLane="0" toLane="0" dir="s" state="M"/>
    <connection from=":n11_1" to="e11" fromLane="0" toLane="0" dir="s" state="M"/>
    <connection from=":n12_0" to="-e11" fromLane="0" toLane="0" dir="s" state="M"/>
    <connection from=":n12_1" to="e12" fromLane="0" toLane="0" dir="s" state="M"/>
    <connection from=":n13_0" to="-e12" fromLane="0" toLane="0" dir="s" state="M"/>
    <connection from=":n13_1" to="e13" fromLane="0" toLane="0" dir="s" state="M"/>
    <connection from=":n14_0" to="-e13" fromLane="0" toLane="0" dir="s" state="M"/>
    <connection from=":n14_1" to="e14" fromLane="0" toLane="0" dir="s" state="M"/>
    <connection from=":n15_0" to="-e14" fromLane="0" toLane="0" dir="s" state="M"/>
    <connection from=":n15_1" to="e15" fromLane="0" toLane="0" dir="s" state="M"/>
    <connection from=":n16_0" to="-e15" fromLane="0" toLane="0" dir="s" state="M"/>
    <connection from=":n16_1" to="e16" fromLane="0" toLane="0" dir="s" state="M"/>
    <connection from=":n2_0" to="e2" fromLane="0" toLane="0" dir="s" state="M"/>
    <connection from=":n2_1" to="-e1" fromLane="0" toLane="0" dir="s" state="M"/>
    <connection from=":n3_0" to="e3" fromLane="0" toLane="0" dir="s" state="M"/>
    <connection from=":n3_1" to="-e2" fromLane="0" toLane="0" dir="s" state="M"/>
    <connection from=":n4_0" to="e4" fromLane="0" toLane="0" dir="s" state="M"/>
    <connection from=":n4_1" to="-e3" fromLane="0" toLane="0" dir="s" state="M"/>
    <connection from=":n5_0" to="e5" fromLane="0" toLane="0" dir="s" state="M"/>
    <connection from=":n5_1" to="-e4" fromLane="0" toLane="0" dir="s" state="M"/>
    <connection from=":n6_0" to="e6" fromLane="0" toLane="0" dir="s" state="M"/>
    <connection from=":n6_1" to="-e5" fromLane="0" toLane="0" dir="s" state="M"/>
    <connection from=":n7_0" to="e7" fromLane="0" toLane="0" dir="s" state="M"/>
    <connection from=":n7_1" to="-e6" fromLane="0" toLane="0" dir="s" state="M"/>
    <connection from=":n8_0" to="e8" fromLane="0" toLane="0" dir="s" state="M"/>
    <connection from=":n8_1" to="-e7" fromLane="0" toLane="0" dir="s" state="M"/>
    <connection from=":n9_0" to="e9" fromLane="0" toLane="0" dir="s" state="M"/>
    <connection from=":n9_1" to="-e8" fromLane="0" toLane="0" dir="s" state="M"/>

</net>
