<?xml version="1.0" encoding="UTF-8"?>

<!-- generated on 2022-11-01 16:57:17 by Eclipse SUMO netedit Version v1_14_1+1789-6cfa3a18e2c
<configuration xmlns:xsi="http://www.w3.org/2001/XMLSchema-instance" xsi:noNamespaceSchemaLocation="http://sumo.dlr.de/xsd/netconvertConfiguration.xsd">

    <output>
        <output-file value="/Users/Res_proj/Documents/Research/ns3-mmwave-old/examples/sumo-millicar/simple-junction/junction.net.xml"/>
    </output>

    <processing>
        <offset.disable-normalization value="true"/>
    </processing>

    <junctions>
        <no-turnarounds value="true"/>
    </junctions>

    <netedit>
        <SUMOConfig-output value="/Users/Res_proj/Documents/Research/ns3-mmwave-old/examples/sumo-millicar/simple-junction/junction.sumocfg"/>
        <route-files value="/Users/Res_proj/Documents/Research/ns3-mmwave-old/examples/sumo-millicar/simple-junction/junction.rou.xml"/>
    </netedit>

</configuration>
-->

<net version="1.9" junctionCornerDetail="5" limitTurnSpeed="5.50" xmlns:xsi="http://www.w3.org/2001/XMLSchema-instance" xsi:noNamespaceSchemaLocation="http://sumo.dlr.de/xsd/net_file.xsd">

    <location netOffset="0.00,0.00" convBoundary="-100.00,-100.00,100.00,100.00" origBoundary="10000000000.00,10000000000.00,-10000000000.00,-10000000000.00" projParameter="!"/>

    <edge id=":J0_0" function="internal">
        <lane id=":J0_0_0" index="0" speed="50" length="9.03" shape="-1.60,7.20 -1.95,4.75 -3.00,3.00 -4.75,1.95 -7.20,1.60"/>
    </edge>
    <edge id=":J0_1" function="internal">
        <lane id=":J0_1_0" index="0" speed="50" length="14.40" shape="-1.60,7.20 -1.60,-7.20"/>
    </edge>
    <edge id=":J0_2" function="internal">
        <lane id=":J0_2_0" index="0" speed="50" length="4.07" shape="-1.60,7.20 -1.05,3.35 -0.96,3.20"/>
    </edge>
    <edge id=":J0_12" function="internal">
        <lane id=":J0_12_0" index="0" speed="50" length="10.13" shape="-0.96,3.20 0.60,0.60 3.35,-1.05 7.20,-1.60"/>
    </edge>
    <edge id=":J0_3" function="internal">
        <lane id=":J0_3_0" index="0" speed="50" length="9.03" shape="7.20,1.60 4.75,1.95 3.00,3.00 1.95,4.75 1.60,7.20"/>
    </edge>
    <edge id=":J0_4" function="internal">
        <lane id=":J0_4_0" index="0" speed="50" length="14.40" shape="7.20,1.60 -7.20,1.60"/>
    </edge>
    <edge id=":J0_5" function="internal">
        <lane id=":J0_5_0" index="0" speed="50" length="14.19" shape="7.20,1.60 3.35,1.05 0.60,-0.60 -1.05,-3.35 -1.60,-7.20"/>
    </edge>
    <edge id=":J0_6" function="internal">
        <lane id=":J0_6_0" index="0" speed="50" length="9.03" shape="1.60,-7.20 1.95,-4.75 3.00,-3.00 4.75,-1.95 7.20,-1.60"/>
    </edge>
    <edge id=":J0_7" function="internal">
        <lane id=":J0_7_0" index="0" speed="50" length="14.40" shape="1.60,-7.20 1.60,7.20"/>
    </edge>
    <edge id=":J0_8" function="internal">
        <lane id=":J0_8_0" index="0" speed="50" length="4.07" shape="1.60,-7.20 1.05,-3.35 0.96,-3.20"/>
    </edge>
    <edge id=":J0_13" function="internal">
        <lane id=":J0_13_0" index="0" speed="50" length="10.13" shape="0.96,-3.20 -0.60,-0.60 -3.35,1.05 -7.20,1.60"/>
    </edge>
    <edge id=":J0_9" function="internal">
        <lane id=":J0_9_0" index="0" speed="50" length="9.03" shape="-7.20,-1.60 -4.75,-1.95 -3.00,-3.00 -1.95,-4.75 -1.60,-7.20"/>
    </edge>
    <edge id=":J0_10" function="internal">
        <lane id=":J0_10_0" index="0" speed="50" length="14.40" shape="-7.20,-1.60 7.20,-1.60"/>
    </edge>
    <edge id=":J0_11" function="internal">
        <lane id=":J0_11_0" index="0" speed="50" length="14.19" shape="-7.20,-1.60 -3.35,-1.05 -0.60,0.60 1.05,3.35 1.60,7.20"/>
    </edge>

    <edge id="-E0" from="J1" to="J0" priority="-1">
        <lane id="-E0_0" index="0" speed="50" length="92.80" shape="-100.00,-1.60 -7.20,-1.60"/>
    </edge>
    <edge id="-E1" from="J2" to="J0" priority="-1">
        <lane id="-E1_0" index="0" speed="50" length="92.80" shape="100.00,1.60 7.20,1.60"/>
    </edge>
    <edge id="-E2" from="J3" to="J0" priority="-1">
        <lane id="-E2_0" index="0" speed="50" length="92.80" shape="1.60,-100.00 1.60,-7.20"/>
    </edge>
    <edge id="-E3" from="J4" to="J0" priority="-1">
        <lane id="-E3_0" index="0" speed="50" length="92.80" shape="-1.60,100.00 -1.60,7.20"/>
    </edge>
    <edge id="E0" from="J0" to="J1" priority="-1">
        <lane id="E0_0" index="0" speed="50" length="92.80" shape="-7.20,1.60 -100.00,1.60"/>
    </edge>
    <edge id="E1" from="J0" to="J2" priority="-1">
        <lane id="E1_0" index="0" speed="50" length="92.80" shape="7.20,-1.60 100.00,-1.60"/>
    </edge>
    <edge id="E2" from="J0" to="J3" priority="-1">
        <lane id="E2_0" index="0" speed="50" length="92.80" shape="-1.60,-7.20 -1.60,-100.00"/>
    </edge>
    <edge id="E3" from="J0" to="J4" priority="-1" length="50.00">
        <lane id="E3_0" index="0" speed="50" length="50.00" shape="1.60,7.20 1.60,100.00"/>
    </edge>

    <junction id="J0" type="priority" x="0.00" y="0.00" incLanes="-E3_0 -E1_0 -E2_0 -E0_0" intLanes=":J0_0_0 :J0_1_0 :J0_12_0 :J0_3_0 :J0_4_0 :J0_5_0 :J0_6_0 :J0_7_0 :J0_13_0 :J0_9_0 :J0_10_0 :J0_11_0" shape="-3.20,7.20 3.20,7.20 3.64,4.98 4.20,4.20 4.98,3.64 5.98,3.31 7.20,3.20 7.20,-3.20 4.98,-3.64 4.20,-4.20 3.64,-4.98 3.31,-5.98 3.20,-7.20 -3.20,-7.20 -3.64,-4.98 -4.20,-4.20 -4.98,-3.64 -5.98,-3.31 -7.20,-3.20 -7.20,3.20 -4.98,3.64 -4.20,4.20 -3.64,4.98 -3.31,5.98">
        <request index="0"  response="000000000000" foes="000100010000" cont="0"/>
        <request index="1"  response="000000000000" foes="111100110000" cont="0"/>
        <request index="2"  response="000011000000" foes="110111110000" cont="1"/>
        <request index="3"  response="000010000000" foes="100010000000" cont="0"/>
        <request index="4"  response="000110000111" foes="100110000111" cont="0"/>
        <request index="5"  response="011110000110" foes="111110000110" cont="0"/>
        <request index="6"  response="000000000000" foes="010000000100" cont="0"/>
        <request index="7"  response="000000000000" foes="110000111100" cont="0"/>
        <request index="8"  response="000000000111" foes="110000110111" cont="1"/>
        <request index="9"  response="000000000010" foes="000000100010" cont="0"/>
        <request index="10" response="000111000110" foes="000111100110" cont="0"/>
        <request index="11" response="000110111110" foes="000110111110" cont="0"/>
    </junction>
    <junction id="J1" type="dead_end" x="-100.00" y="0.00" incLanes="E0_0" intLanes="" shape="-100.00,0.00 -100.00,3.20 -100.00,0.00"/>
    <junction id="J2" type="dead_end" x="100.00" y="0.00" incLanes="E1_0" intLanes="" shape="100.00,0.00 100.00,-3.20 100.00,0.00"/>
    <junction id="J3" type="dead_end" x="0.00" y="-100.00" incLanes="E2_0" intLanes="" shape="0.00,-100.00 -3.20,-100.00 0.00,-100.00"/>
    <junction id="J4" type="dead_end" x="0.00" y="100.00" incLanes="E3_0" intLanes="" shape="0.00,100.00 3.20,100.00 0.00,100.00"/>

    <junction id=":J0_12_0" type="internal" x="-0.96" y="3.20" incLanes=":J0_2_0 -E2_0" intLanes=":J0_4_0 :J0_5_0 :J0_6_0 :J0_7_0 :J0_10_0 :J0_11_0"/>
    <junction id=":J0_13_0" type="internal" x="0.96" y="-3.20" incLanes=":J0_8_0 -E3_0" intLanes=":J0_0_0 :J0_1_0 :J0_4_0 :J0_5_0 :J0_10_0 :J0_11_0"/>

    <connection from="-E0" to="E2" fromLane="0" toLane="0" via=":J0_9_0" dir="r" state="m"/>
    <connection from="-E0" to="E1" fromLane="0" toLane="0" via=":J0_10_0" dir="s" state="m"/>
    <connection from="-E0" to="E3" fromLane="0" toLane="0" via=":J0_11_0" dir="l" state="m"/>
    <connection from="-E1" to="E3" fromLane="0" toLane="0" via=":J0_3_0" dir="r" state="m"/>
    <connection from="-E1" to="E0" fromLane="0" toLane="0" via=":J0_4_0" dir="s" state="m"/>
    <connection from="-E1" to="E2" fromLane="0" toLane="0" via=":J0_5_0" dir="l" state="m"/>
    <connection from="-E2" to="E1" fromLane="0" toLane="0" via=":J0_6_0" dir="r" state="M"/>
    <connection from="-E2" to="E3" fromLane="0" toLane="0" via=":J0_7_0" dir="s" state="M"/>
    <connection from="-E2" to="E0" fromLane="0" toLane="0" via=":J0_8_0" dir="l" state="m"/>
    <connection from="-E3" to="E0" fromLane="0" toLane="0" via=":J0_0_0" dir="r" state="M"/>
    <connection from="-E3" to="E2" fromLane="0" toLane="0" via=":J0_1_0" dir="s" state="M"/>
    <connection from="-E3" to="E1" fromLane="0" toLane="0" via=":J0_2_0" dir="l" state="m"/>

    <connection from=":J0_0" to="E0" fromLane="0" toLane="0" dir="r" state="M"/>
    <connection from=":J0_1" to="E2" fromLane="0" toLane="0" dir="s" state="M"/>
    <connection from=":J0_2" to="E1" fromLane="0" toLane="0" via=":J0_12_0" dir="l" state="m"/>
    <connection from=":J0_12" to="E1" fromLane="0" toLane="0" dir="l" state="M"/>
    <connection from=":J0_3" to="E3" fromLane="0" toLane="0" dir="r" state="M"/>
    <connection from=":J0_4" to="E0" fromLane="0" toLane="0" dir="s" state="M"/>
    <connection from=":J0_5" to="E2" fromLane="0" toLane="0" dir="l" state="M"/>
    <connection from=":J0_6" to="E1" fromLane="0" toLane="0" dir="r" state="M"/>
    <connection from=":J0_7" to="E3" fromLane="0" toLane="0" dir="s" state="M"/>
    <connection from=":J0_8" to="E0" fromLane="0" toLane="0" via=":J0_13_0" dir="l" state="m"/>
    <connection from=":J0_13" to="E0" fromLane="0" toLane="0" dir="l" state="M"/>
    <connection from=":J0_9" to="E2" fromLane="0" toLane="0" dir="r" state="M"/>
    <connection from=":J0_10" to="E1" fromLane="0" toLane="0" dir="s" state="M"/>
    <connection from=":J0_11" to="E3" fromLane="0" toLane="0" dir="l" state="M"/>

</net>
