<?xml version="1.0" encoding="UTF-8"?>

<!-- generated on 2022-11-19 16:18:28 by Eclipse SUMO netconvert Version v1_14_1+1789-6cfa3a18e2c
<configuration xmlns:xsi="http://www.w3.org/2001/XMLSchema-instance" xsi:noNamespaceSchemaLocation="http://sumo.dlr.de/xsd/netconvertConfiguration.xsd">

    <input>
        <osm-files value="00.osm.xml"/>
    </input>

    <output>
        <output-file value="00.net.xml"/>
    </output>

    <projection>
        <proj.utm value="true"/>
    </projection>

</configuration>
-->

<net version="1.9" junctionCornerDetail="5" limitTurnSpeed="5.50" xmlns:xsi="http://www.w3.org/2001/XMLSchema-instance" xsi:noNamespaceSchemaLocation="http://sumo.dlr.de/xsd/net_file.xsd">

    <location netOffset="-297447.35,-5629643.23" convBoundary="0.00,0.00,969.45,504.87" origBoundary="6.126440,50.783176,6.139976,50.787985" projParameter="+proj=utm +zone=32 +ellps=WGS84 +datum=WGS84 +units=m +no_defs"/>

    <type id="highway.bridleway" priority="1" numLanes="1" speed="2.78" allow="pedestrian" oneway="1" width="2.00"/>
    <type id="highway.bus_guideway" priority="1" numLanes="1" speed="27.78" allow="bus" oneway="1"/>
    <type id="highway.cycleway" priority="1" numLanes="1" speed="5.56" allow="bicycle" oneway="0" width="1.00"/>
    <type id="highway.footway" priority="1" numLanes="1" speed="2.78" allow="pedestrian" oneway="1" width="2.00"/>
    <type id="highway.ford" priority="1" numLanes="1" speed="2.78" allow="army" oneway="0"/>
    <type id="highway.living_street" priority="2" numLanes="1" speed="2.78" disallow="tram rail_urban rail rail_electric rail_fast ship" oneway="0"/>
    <type id="highway.motorway" priority="14" numLanes="2" speed="39.44" allow="private emergency authority army vip passenger hov taxi bus coach delivery truck trailer motorcycle evehicle custom1 custom2" oneway="1"/>
    <type id="highway.motorway_link" priority="9" numLanes="1" speed="22.22" allow="private emergency authority army vip passenger hov taxi bus coach delivery truck trailer motorcycle evehicle custom1 custom2" oneway="1"/>
    <type id="highway.path" priority="1" numLanes="1" speed="5.56" allow="pedestrian bicycle" oneway="0" width="2.00"/>
    <type id="highway.pedestrian" priority="1" numLanes="1" speed="2.78" allow="pedestrian" oneway="1" width="2.00"/>
    <type id="highway.primary" priority="12" numLanes="2" speed="27.78" disallow="tram rail_urban rail rail_electric rail_fast ship" oneway="0"/>
    <type id="highway.primary_link" priority="7" numLanes="1" speed="22.22" disallow="tram rail_urban rail rail_electric rail_fast ship" oneway="0"/>
    <type id="highway.raceway" priority="15" numLanes="2" speed="83.33" allow="vip" oneway="0"/>
    <type id="highway.residential" priority="3" numLanes="1" speed="13.89" disallow="tram rail_urban rail rail_electric rail_fast ship" oneway="0"/>
    <type id="highway.secondary" priority="11" numLanes="1" speed="27.78" disallow="tram rail_urban rail rail_electric rail_fast ship" oneway="0"/>
    <type id="highway.secondary_link" priority="6" numLanes="1" speed="22.22" disallow="tram rail_urban rail rail_electric rail_fast ship" oneway="0"/>
    <type id="highway.service" priority="1" numLanes="1" speed="5.56" allow="pedestrian delivery bicycle" oneway="0"/>
    <type id="highway.stairs" priority="1" numLanes="1" speed="1.39" allow="pedestrian" oneway="1" width="2.00"/>
    <type id="highway.step" priority="1" numLanes="1" speed="1.39" allow="pedestrian" oneway="1" width="2.00"/>
    <type id="highway.steps" priority="1" numLanes="1" speed="1.39" allow="pedestrian" oneway="1" width="2.00"/>
    <type id="highway.tertiary" priority="10" numLanes="1" speed="22.22" disallow="tram rail_urban rail rail_electric rail_fast ship" oneway="0"/>
    <type id="highway.tertiary_link" priority="5" numLanes="1" speed="22.22" disallow="tram rail_urban rail rail_electric rail_fast ship" oneway="0"/>
    <type id="highway.track" priority="1" numLanes="1" speed="5.56" allow="pedestrian motorcycle moped bicycle" oneway="0"/>
    <type id="highway.trunk" priority="13" numLanes="2" speed="27.78" disallow="pedestrian bicycle tram rail_urban rail rail_electric rail_fast ship" oneway="0"/>
    <type id="highway.trunk_link" priority="8" numLanes="1" speed="22.22" disallow="pedestrian bicycle tram rail_urban rail rail_electric rail_fast ship" oneway="0"/>
    <type id="highway.unclassified" priority="4" numLanes="1" speed="13.89" disallow="tram rail_urban rail rail_electric rail_fast ship" oneway="0"/>
    <type id="highway.unsurfaced" priority="1" numLanes="1" speed="8.33" disallow="tram rail_urban rail rail_electric rail_fast ship" oneway="0"/>
    <type id="railway.highspeed" priority="21" numLanes="1" speed="69.44" allow="rail_fast" oneway="1"/>
    <type id="railway.light_rail" priority="19" numLanes="1" speed="27.78" allow="rail_urban" oneway="1"/>
    <type id="railway.preserved" priority="16" numLanes="1" speed="27.78" allow="rail" oneway="1"/>
    <type id="railway.rail" priority="20" numLanes="1" speed="44.44" allow="rail" oneway="1"/>
    <type id="railway.subway" priority="18" numLanes="1" speed="27.78" allow="rail_urban" oneway="1"/>
    <type id="railway.tram" priority="17" numLanes="1" speed="13.89" allow="tram" oneway="1"/>

    <edge id=":1463870942_0" function="internal">
        <lane id=":1463870942_0_0" index="0" disallow="tram rail_urban rail rail_electric rail_fast ship" speed="3.65" length="4.67" shape="328.43,295.33 327.70,296.57 326.92,297.01 326.10,296.66 325.23,295.50"/>
    </edge>
    <edge id=":151206044_0" function="internal">
        <lane id=":151206044_0_0" index="0" disallow="tram rail_urban rail rail_electric rail_fast ship" speed="3.65" length="4.67" shape="567.84,275.33 568.90,276.32 569.16,277.17 568.64,277.90 567.32,278.49"/>
    </edge>
    <edge id=":151206058_0" function="internal">
        <lane id=":151206058_0_0" index="0" disallow="tram rail_urban rail rail_electric rail_fast ship" speed="9.39" length="12.19" shape="320.03,221.71 319.42,217.91 318.35,214.91 316.80,212.70 314.78,211.30"/>
    </edge>
    <edge id=":151206058_1" function="internal">
        <lane id=":151206058_1_0" index="0" disallow="tram rail_urban rail rail_electric rail_fast ship" speed="7.42" length="16.61" shape="320.03,221.71 320.26,216.75 322.00,213.90 325.26,213.14 330.03,214.48"/>
    </edge>
    <edge id=":151206058_2" function="internal">
        <lane id=":151206058_2_0" index="0" disallow="tram rail_urban rail rail_electric rail_fast ship" speed="3.65" length="4.67" shape="320.03,221.71 320.72,220.44 321.48,219.97 322.31,220.30 323.22,221.42"/>
    </edge>
    <edge id=":151206058_3" function="internal">
        <lane id=":151206058_3_0" index="0" disallow="tram rail_urban rail rail_electric rail_fast ship" speed="5.70" length="9.21" shape="328.76,217.41 326.12,216.67 324.31,217.09 323.34,218.68 323.22,221.42"/>
    </edge>
    <edge id=":151206058_4" function="internal">
        <lane id=":151206058_4_0" index="0" disallow="tram rail_urban rail rail_electric rail_fast ship" speed="13.89" length="15.27" shape="328.76,217.41 314.78,211.30"/>
    </edge>
    <edge id=":151206058_5" function="internal">
        <lane id=":151206058_5_0" index="0" disallow="tram rail_urban rail rail_electric rail_fast ship" speed="3.65" length="1.44" shape="328.76,217.41 327.98,216.20"/>
    </edge>
    <edge id=":151206058_9" function="internal">
        <lane id=":151206058_9_0" index="0" disallow="tram rail_urban rail rail_electric rail_fast ship" speed="3.65" length="3.23" shape="327.98,216.20 327.93,215.31 328.61,214.73 330.03,214.48"/>
    </edge>
    <edge id=":151206058_6" function="internal">
        <lane id=":151206058_6_0" index="0" disallow="tram rail_urban rail rail_electric rail_fast ship" speed="13.89" length="15.22" shape="316.08,208.37 330.03,214.48"/>
    </edge>
    <edge id=":151206058_7" function="internal">
        <lane id=":151206058_7_0" index="0" disallow="tram rail_urban rail rail_electric rail_fast ship" speed="10.56" length="3.50" shape="316.08,208.37 318.86,210.23 318.96,210.36"/>
    </edge>
    <edge id=":151206058_8" function="internal">
        <lane id=":151206058_8_0" index="0" disallow="tram rail_urban rail rail_electric rail_fast ship" speed="3.65" length="1.44" shape="316.08,208.37 316.85,209.59"/>
    </edge>
    <edge id=":151206058_10" function="internal">
        <lane id=":151206058_10_0" index="0" disallow="tram rail_urban rail rail_electric rail_fast ship" speed="10.56" length="12.08" shape="318.96,210.36 320.98,213.03 322.43,216.76 323.22,221.42"/>
    </edge>
    <edge id=":151206058_11" function="internal">
        <lane id=":151206058_11_0" index="0" disallow="tram rail_urban rail rail_electric rail_fast ship" speed="3.65" length="3.23" shape="316.85,209.59 316.89,210.49 316.20,211.05 314.78,211.30"/>
    </edge>
    <edge id=":151208470_0" function="internal">
        <lane id=":151208470_0_0" index="0" allow="pedestrian delivery bicycle" speed="3.65" length="4.67" shape="280.35,5.44 281.52,4.60 282.41,4.51 283.02,5.16 283.35,6.57"/>
    </edge>
    <edge id=":151208507_0" function="internal">
        <lane id=":151208507_0_0" index="0" allow="pedestrian delivery bicycle" speed="5.56" length="6.45" shape="301.45,161.77 299.92,162.89 298.75,163.55 297.48,163.88 295.59,164.02"/>
    </edge>
    <edge id=":151208507_1" function="internal">
        <lane id=":151208507_1_0" index="0" allow="pedestrian delivery bicycle" speed="3.65" length="4.67" shape="301.45,161.77 300.01,161.84 299.21,161.44 299.06,160.56 299.54,159.20"/>
    </edge>
    <edge id=":151208507_2" function="internal">
        <lane id=":151208507_2_0" index="0" allow="pedestrian delivery bicycle" speed="5.56" length="4.51" shape="295.47,160.82 296.78,160.72 297.67,160.47 298.47,159.99 299.54,159.20"/>
    </edge>
    <edge id=":151208507_3" function="internal">
        <lane id=":151208507_3_0" index="0" allow="pedestrian delivery bicycle" speed="3.65" length="4.67" shape="295.47,160.82 296.70,161.58 297.13,162.36 296.76,163.18 295.59,164.02"/>
    </edge>
    <edge id=":151208565_0" function="internal">
        <lane id=":151208565_0_0" index="0" allow="pedestrian delivery bicycle" speed="5.56" length="5.87" shape="248.19,44.43 246.67,43.42 245.27,42.96 244.00,43.05 242.86,43.68"/>
    </edge>
    <edge id=":151208565_1" function="internal">
        <lane id=":151208565_1_0" index="0" allow="pedestrian delivery bicycle" speed="5.56" length="11.19" shape="248.19,44.43 246.04,42.11 245.32,39.78 246.02,37.45 248.14,35.11"/>
    </edge>
    <edge id=":151208565_2" function="internal">
        <lane id=":151208565_2_0" index="0" allow="pedestrian delivery bicycle" speed="3.65" length="4.67" shape="248.19,44.43 247.76,43.06 247.95,42.18 248.77,41.81 250.20,41.95"/>
    </edge>
    <edge id=":151208565_3" function="internal">
        <lane id=":151208565_3_0" index="0" allow="pedestrian delivery bicycle" speed="4.86" length="5.25" shape="250.18,37.57 249.19,38.67 248.86,39.77 249.20,40.86 250.20,41.95"/>
    </edge>
    <edge id=":151208565_4" function="internal">
        <lane id=":151208565_4_0" index="0" allow="pedestrian delivery bicycle" speed="5.56" length="9.54" shape="250.18,37.57 242.86,43.68"/>
    </edge>
    <edge id=":151208565_5" function="internal">
        <lane id=":151208565_5_0" index="0" allow="pedestrian delivery bicycle" speed="3.65" length="4.67" shape="250.18,37.57 248.75,37.72 247.93,37.36 247.73,36.49 248.14,35.11"/>
    </edge>
    <edge id=":151208565_6" function="internal">
        <lane id=":151208565_6_0" index="0" allow="pedestrian delivery bicycle" speed="5.56" length="9.57" shape="240.80,41.24 248.14,35.11"/>
    </edge>
    <edge id=":151208565_7" function="internal">
        <lane id=":151208565_7_0" index="0" allow="pedestrian delivery bicycle" speed="5.56" length="10.35" shape="240.80,41.24 242.95,39.96 245.24,39.65 247.66,40.32 250.20,41.95"/>
    </edge>
    <edge id=":151208565_8" function="internal">
        <lane id=":151208565_8_0" index="0" allow="pedestrian delivery bicycle" speed="3.65" length="4.67" shape="240.80,41.24 242.23,41.08 243.05,41.43 243.26,42.30 242.86,43.68"/>
    </edge>
    <edge id=":346143027_0" function="internal">
        <lane id=":346143027_0_0" index="0" allow="pedestrian delivery bicycle" speed="5.56" length="9.97" shape="304.11,255.76 305.18,265.68"/>
    </edge>
    <edge id=":346143027_1" function="internal">
        <lane id=":346143027_1_0" index="0" allow="pedestrian delivery bicycle" speed="5.56" length="10.00" shape="300.54,257.11 302.39,259.46 303.80,261.08 304.74,262.85 305.18,265.68"/>
    </edge>
    <edge id=":346143029_0" function="internal">
        <lane id=":346143029_0_0" index="0" allow="pedestrian delivery bicycle" speed="5.56" length="11.13" shape="270.55,218.13 272.16,218.02 274.40,218.61 277.28,219.90 280.80,221.89"/>
    </edge>
    <edge id=":346143029_1" function="internal">
        <lane id=":346143029_1_0" index="0" allow="pedestrian delivery bicycle" speed="5.56" length="10.49" shape="270.55,218.13 271.99,218.19 273.75,219.29 275.83,221.43 278.22,224.62"/>
    </edge>
    <edge id=":346143030_0" function="internal">
        <lane id=":346143030_0_0" index="0" allow="pedestrian delivery bicycle" speed="5.56" length="5.02" shape="259.35,222.64 260.65,221.91 261.56,221.44 262.49,221.03 263.89,220.51"/>
    </edge>
    <edge id=":346143030_1" function="internal">
        <lane id=":346143030_1_0" index="0" allow="pedestrian delivery bicycle" speed="5.32" length="5.37" shape="259.35,222.64 260.61,222.19 261.79,222.30 262.89,222.95 263.89,224.16"/>
    </edge>
    <edge id=":346143031_0" function="internal">
        <lane id=":346143031_0_0" index="0" allow="pedestrian delivery bicycle" speed="4.29" length="1.18" shape="246.37,267.53 246.19,267.24 246.10,267.01 246.09,266.77 246.13,266.42"/>
    </edge>
    <edge id=":346143335_0" function="internal">
        <lane id=":346143335_0_0" index="0" allow="pedestrian delivery bicycle" speed="5.56" length="6.27" shape="251.42,236.62 251.77,234.79 251.97,233.52 252.28,232.29 252.96,230.57"/>
    </edge>
    <edge id=":346143335_1" function="internal">
        <lane id=":346143335_1_0" index="0" allow="pedestrian delivery bicycle" speed="4.67" length="6.56" shape="251.42,236.62 252.10,234.65 253.00,233.86 254.12,234.27 255.47,235.86"/>
    </edge>
    <edge id=":346143485_0" function="internal">
        <lane id=":346143485_0_0" index="0" allow="pedestrian delivery bicycle" speed="5.56" length="7.46" shape="251.81,253.89 250.46,251.71 249.56,249.84 249.12,248.30 249.13,247.07"/>
    </edge>
    <edge id=":346143485_1" function="internal">
        <lane id=":346143485_1_0" index="0" allow="pedestrian delivery bicycle" speed="5.56" length="7.82" shape="247.84,254.79 249.13,247.07"/>
    </edge>
    <edge id=":4065676965_0" function="internal">
        <lane id=":4065676965_0_0" index="0" disallow="tram rail_urban rail rail_electric rail_fast ship" speed="3.65" length="4.67" shape="165.02,116.68 164.60,115.30 164.80,114.43 165.61,114.07 167.05,114.21"/>
    </edge>
    <edge id=":4065676967_0" function="internal">
        <lane id=":4065676967_0_0" index="0" disallow="tram rail_urban rail rail_electric rail_fast ship" speed="13.89" length="9.22" shape="265.03,185.05 262.24,184.63 260.02,185.90 257.77,187.16 254.92,186.71"/>
        <lane id=":4065676967_0_1" index="1" disallow="tram rail_urban rail rail_electric rail_fast ship" speed="13.89" length="9.22" shape="265.03,185.05 262.64,184.28 260.76,184.48 258.88,184.69 256.49,183.92"/>
        <lane id=":4065676967_0_2" index="2" disallow="tram rail_urban rail rail_electric rail_fast ship" speed="13.89" length="9.22" shape="265.03,185.05 258.06,181.13"/>
    </edge>
    <edge id=":4065676967_3" function="internal">
        <lane id=":4065676967_3_0" index="0" disallow="tram rail_urban rail rail_electric rail_fast ship" speed="13.89" length="8.81" shape="261.19,175.55 263.10,177.19 263.90,178.91 264.70,180.62 266.60,182.26"/>
    </edge>
    <edge id=":471092827_0" function="internal">
        <lane id=":471092827_0_0" index="0" allow="pedestrian bus delivery bicycle" speed="5.56" length="5.19" shape="212.44,204.72 215.07,209.19"/>
    </edge>
    <edge id=":6068947078_0" function="internal">
        <lane id=":6068947078_0_0" index="0" allow="pedestrian bus delivery bicycle" speed="5.56" length="0.75" shape="223.47,223.29 223.58,223.48 223.65,223.62 223.68,223.77 223.70,223.99"/>
    </edge>
    <edge id=":6068947079_0" function="internal">
        <lane id=":6068947079_0_0" index="0" allow="pedestrian bus delivery bicycle" speed="5.56" length="0.30" shape="223.87,226.30 223.89,226.59"/>
    </edge>
    <edge id=":6806334414_0" function="internal">
        <lane id=":6806334414_0_0" index="0" allow="pedestrian delivery bicycle" speed="5.56" length="3.68" shape="253.04,230.38 254.51,227.01"/>
    </edge>
    <edge id=":6806334417_0" function="internal">
        <lane id=":6806334417_0_0" index="0" allow="pedestrian delivery bicycle" speed="5.56" length="3.72" shape="264.08,220.45 267.58,219.19"/>
    </edge>
    <edge id=":894568582_0" function="internal">
        <lane id=":894568582_0_0" index="0" disallow="tram rail_urban rail rail_electric rail_fast ship" speed="13.89" length="6.96" shape="321.22,235.76 320.66,228.82"/>
    </edge>
    <edge id=":894568582_1" function="internal">
        <lane id=":894568582_1_0" index="0" disallow="tram rail_urban rail rail_electric rail_fast ship" speed="13.89" length="7.01" shape="323.84,228.54 324.41,235.53"/>
    </edge>

    <edge id="-123336470" from="151206044" to="151206058" priority="10" type="highway.tertiary" shape="567.58,276.91 530.37,270.77 525.05,269.92 471.98,260.93 429.76,251.39 391.96,239.82 345.74,222.99 320.80,212.24">
        <lane id="-123336470_0" index="0" disallow="tram rail_urban rail rail_electric rail_fast ship" speed="13.89" length="247.12" shape="567.32,278.49 530.11,272.35 524.79,271.50 471.67,262.51 429.35,252.94 391.46,241.34 345.15,224.48 328.76,217.41"/>
    </edge>
    <edge id="-15258777#0" from="151208565" to="151208470" priority="1" type="highway.service" shape="245.00,39.79 280.07,10.76 284.10,0.00">
        <lane id="-15258777#0_0" index="0" allow="pedestrian delivery bicycle" speed="5.56" length="44.34" shape="248.14,35.11 278.72,9.80 280.35,5.44"/>
    </edge>
    <edge id="-15258777#1" from="151208507" to="151208565" priority="1" type="highway.service" shape="298.02,162.33 292.63,162.54 261.23,148.60 228.67,130.33 194.69,106.97 191.52,100.98 190.47,92.72 191.93,86.07 197.32,79.99 245.00,39.79">
        <lane id="-15258777#1_0" index="0" allow="pedestrian delivery bicycle" speed="5.56" length="208.11" shape="295.59,164.02 292.32,164.15 260.51,150.03 227.82,131.69 193.46,108.07 189.97,101.48 188.85,92.65 190.45,85.32 196.20,78.85 240.80,41.24"/>
    </edge>
    <edge id="-15258777#2" from="151208565" to="151208507" priority="1" type="highway.service" shape="245.00,39.79 251.32,44.92 260.37,44.57 267.33,40.88 283.40,44.65 298.71,54.07 305.42,56.50 314.32,64.95 313.70,105.77 310.20,141.81 306.00,153.47 302.54,158.97 298.02,162.33">
        <lane id="-15258777#2_0" index="0" allow="pedestrian delivery bicycle" speed="5.56" length="175.03" shape="250.20,41.95 251.86,43.30 259.94,42.98 267.11,39.18 284.02,43.15 299.41,52.62 306.28,55.11 315.93,64.27 315.30,105.86 311.77,142.17 307.45,154.17 303.73,160.07 301.45,161.77"/>
    </edge>
    <edge id="-15258885#0" from="894568582" to="151206058" priority="4" type="highway.unclassified">
        <lane id="-15258885#0_0" index="0" disallow="tram rail_urban rail rail_electric rail_fast ship" speed="13.89" length="7.15" shape="320.66,228.82 320.03,221.71"/>
    </edge>
    <edge id="-15258885#1" from="1463870942" to="894568582" priority="4" type="highway.unclassified" shape="326.83,295.42 325.73,275.32 322.55,232.06">
        <lane id="-15258885#1_0" index="0" disallow="tram rail_urban rail rail_electric rail_fast ship" speed="13.89" length="59.88" shape="325.23,295.50 324.13,275.42 321.22,235.76"/>
    </edge>
    <edge id="-27955296" from="4065676967" to="4065676965" priority="10" type="highway.tertiary" shape="262.33,181.69 232.92,165.16 205.66,146.10 178.33,125.55 166.03,115.45">
        <lane id="-27955296_0" index="0" disallow="tram rail_urban rail rail_electric rail_fast ship" speed="13.89" length="113.95" shape="254.92,186.71 228.66,171.94 200.96,152.57 173.39,131.84 160.96,121.63"/>
        <lane id="-27955296_1" index="1" disallow="tram rail_urban rail rail_electric rail_fast ship" speed="13.89" length="113.95" shape="256.49,183.92 230.37,169.22 202.84,149.98 175.37,129.32 162.99,119.16"/>
        <lane id="-27955296_2" index="2" disallow="tram rail_urban rail rail_electric rail_fast ship" speed="13.89" length="113.95" shape="258.06,181.13 232.07,166.51 204.72,147.39 177.35,126.80 165.02,116.68"/>
    </edge>
    <edge id="-404294848" from="151206058" to="4065676967" priority="10" type="highway.tertiary" shape="320.80,212.24 310.58,207.67 277.16,190.04 262.33,181.69">
        <lane id="-404294848_0" index="0" disallow="tram rail_urban rail rail_electric rail_fast ship" speed="13.89" length="56.26" shape="314.78,211.30 309.88,209.11 276.40,191.44 265.03,185.05"/>
    </edge>
    <edge id="1020265130" from="9410119437" to="9410119440" priority="1" type="highway.footway" spreadType="center" shape="313.33,174.12 313.99,181.40 313.53,184.37 308.59,193.30">
        <lane id="1020265130_0" index="0" allow="pedestrian" speed="2.78" length="17.51" width="2.00" shape="313.37,174.60 313.99,181.40 313.53,184.37 309.81,191.09"/>
    </edge>
    <edge id="1020265442" from="151208507" to="9410119436" priority="1" type="highway.footway" spreadType="center" shape="298.02,162.33 307.11,170.86 310.20,172.06">
        <lane id="1020265442_0" index="0" allow="pedestrian" speed="2.78" length="10.67" width="2.00" shape="301.67,165.75 307.11,170.86 310.10,172.03"/>
    </edge>
    <edge id="1020265443" from="9410119436" to="9410119437" priority="1" type="highway.steps" spreadType="center">
        <lane id="1020265443_0" index="0" allow="pedestrian" speed="1.39" length="3.16" width="2.00" shape="310.29,172.12 312.92,173.86"/>
    </edge>
    <edge id="123336470" from="151206058" to="151206044" priority="10" type="highway.tertiary" shape="320.80,212.24 345.74,222.99 391.96,239.82 429.76,251.39 471.98,260.93 525.05,269.92 530.37,270.77 567.58,276.91">
        <lane id="123336470_0" index="0" disallow="tram rail_urban rail rail_electric rail_fast ship" speed="13.89" length="246.34" shape="330.03,214.48 346.33,221.50 392.47,238.31 430.18,249.85 472.29,259.36 525.32,268.34 530.63,269.19 567.84,275.33"/>
    </edge>
    <edge id="15258777#0" from="151208470" to="151208565" priority="1" type="highway.service" shape="284.10,0.00 280.07,10.76 245.00,39.79">
        <lane id="15258777#0_0" index="0" allow="pedestrian delivery bicycle" speed="5.56" length="46.05" shape="283.35,6.57 281.42,11.72 250.18,37.57"/>
    </edge>
    <edge id="15258777#1" from="151208565" to="151208507" priority="1" type="highway.service" shape="245.00,39.79 197.32,79.99 191.93,86.07 190.47,92.72 191.52,100.98 194.69,106.97 228.67,130.33 261.23,148.60 292.63,162.54 298.02,162.33">
        <lane id="15258777#1_0" index="0" allow="pedestrian delivery bicycle" speed="5.56" length="200.05" shape="242.86,43.68 198.44,81.14 193.40,86.82 192.09,92.79 193.08,100.49 195.92,105.88 229.52,128.97 261.94,147.17 292.94,160.92 295.47,160.82"/>
    </edge>
    <edge id="15258777#2" from="151208507" to="151208565" priority="1" type="highway.service" shape="298.02,162.33 302.54,158.97 306.00,153.47 310.20,141.81 313.70,105.77 314.32,64.95 305.42,56.50 298.71,54.07 283.40,44.65 267.33,40.88 260.37,44.57 251.32,44.92 245.00,39.79">
        <lane id="15258777#2_0" index="0" allow="pedestrian delivery bicycle" speed="5.56" length="169.02" shape="299.54,159.20 301.34,157.86 304.56,152.76 308.63,141.46 312.10,105.68 312.71,65.63 304.56,57.89 298.01,55.52 282.79,46.15 267.55,42.57 260.80,46.15 250.78,46.54 248.19,44.43"/>
    </edge>
    <edge id="15258885#0" from="151206058" to="894568582" priority="4" type="highway.unclassified">
        <lane id="15258885#0_0" index="0" disallow="tram rail_urban rail rail_electric rail_fast ship" speed="13.89" length="7.15" shape="323.22,221.42 323.84,228.54"/>
    </edge>
    <edge id="15258885#1" from="894568582" to="1463870942" priority="4" type="highway.unclassified" shape="322.55,232.06 325.73,275.32 326.83,295.42">
        <lane id="15258885#1_0" index="0" disallow="tram rail_urban rail rail_electric rail_fast ship" speed="13.89" length="59.94" shape="324.41,235.53 327.32,275.22 328.43,295.33"/>
    </edge>
    <edge id="24278472#0" from="151208470" to="894568648" priority="1" type="highway.footway" spreadType="center" shape="284.10,0.00 290.48,15.54 323.69,54.67 327.17,63.36 321.20,151.16 320.89,199.58">
        <lane id="24278472#0_0" index="0" allow="pedestrian" speed="2.78" length="203.50" width="2.00" shape="286.87,6.73 290.48,15.54 323.69,54.67 327.17,63.36 321.20,151.16 320.91,196.46"/>
    </edge>
    <edge id="24278472#1" from="894568648" to="151206058" priority="1" type="highway.footway" spreadType="center">
        <lane id="24278472#1_0" index="0" allow="pedestrian" speed="2.78" length="4.28" width="2.00" shape="320.87,202.52 320.84,206.80"/>
    </edge>
    <edge id="27955296" from="4065676965" to="4065676967" priority="10" type="highway.tertiary" shape="166.03,115.45 178.33,125.55 205.66,146.10 232.92,165.16 262.33,181.69">
        <lane id="27955296_0" index="0" disallow="tram rail_urban rail rail_electric rail_fast ship" speed="13.89" length="112.55" shape="169.08,111.74 181.30,121.77 208.48,142.21 235.48,161.09 261.19,175.55"/>
        <lane id="27955296_1" index="1" disallow="tram rail_urban rail rail_electric rail_fast ship" speed="13.89" length="112.55" shape="167.05,114.21 179.32,124.29 206.60,144.80 233.78,163.80 259.63,178.34"/>
    </edge>
    <edge id="31129712" from="346143029" to="346143027" priority="1" type="highway.service" spreadType="center">
        <lane id="31129712_0" index="0" allow="pedestrian delivery bicycle" speed="5.56" length="39.42" shape="278.22,224.62 300.54,257.11"/>
    </edge>
    <edge id="31129713" from="346143030" to="346143290" priority="1" type="highway.service" spreadType="center">
        <lane id="31129713_0" index="0" allow="pedestrian delivery bicycle" speed="5.56" length="70.28" shape="263.89,224.16 302.33,282.99"/>
    </edge>
    <edge id="31129717" from="346143335" to="346143026" priority="1" type="highway.service" spreadType="center" shape="252.55,231.49 302.98,306.93 308.71,310.74">
        <lane id="31129717_0" index="0" allow="pedestrian delivery bicycle" speed="5.56" length="92.37" shape="255.47,235.86 302.98,306.93 308.71,310.74"/>
    </edge>
    <edge id="31129722" from="346143484" to="346143485" priority="1" type="highway.service" spreadType="center">
        <lane id="31129722_0" index="0" allow="pedestrian delivery bicycle" speed="5.56" length="97.80" shape="306.38,335.05 251.81,253.89"/>
    </edge>
    <edge id="39321247#0" from="471092785" to="471092827" priority="1" type="highway.service" spreadType="center" shape="311.85,373.35 299.60,368.43 285.61,363.75 280.89,366.60 239.84,391.27 206.51,413.57 197.17,416.61 190.15,415.57 179.93,407.81 169.66,398.45 53.98,250.84 0.92,147.85 0.00,141.73 0.12,136.74 0.92,125.15 22.47,89.79 35.19,78.58 54.81,69.72 68.43,71.43 83.68,77.41 88.08,81.21 170.57,152.38 203.13,188.69 213.72,206.92">
        <lane id="39321247#0_0" index="0" allow="pedestrian bus delivery bicycle" speed="5.56" length="783.37" shape="311.85,373.35 299.60,368.43 285.61,363.75 280.89,366.60 239.84,391.27 206.51,413.57 197.17,416.61 190.15,415.57 179.93,407.81 169.66,398.45 53.98,250.84 0.92,147.85 0.00,141.73 0.12,136.74 0.92,125.15 22.47,89.79 35.19,78.58 54.81,69.72 68.43,71.43 83.68,77.41 88.08,81.21 170.57,152.38 203.13,188.69 212.44,204.72"/>
    </edge>
    <edge id="39321247#1" from="471092827" to="6068947078" priority="1" type="highway.service" spreadType="center">
        <lane id="39321247#1_0" index="0" allow="pedestrian bus delivery bicycle" speed="5.56" length="16.42" shape="215.07,209.19 223.47,223.29"/>
    </edge>
    <edge id="39321250#0" from="6806321684" to="473379864" priority="1" type="highway.footway" spreadType="center">
        <lane id="39321250#0_0" index="0" allow="pedestrian" speed="2.78" length="2.75" width="2.00" shape="206.42,214.02 208.14,211.88"/>
    </edge>
    <edge id="39321250#1" from="473379864" to="471092827" priority="1" type="highway.footway" spreadType="center">
        <lane id="39321250#1_0" index="0" allow="pedestrian" speed="2.78" length="0.20" width="2.00" shape="211.46,208.54 211.62,208.43"/>
    </edge>
    <edge id="39321250#2" from="471092827" to="473379871" priority="1" type="highway.footway" spreadType="center">
        <lane id="39321250#2_0" index="0" allow="pedestrian" speed="2.78" length="7.32" width="2.00" shape="216.38,205.27 222.60,201.40"/>
    </edge>
    <edge id="39321250#3" from="473379871" to="6806334403" priority="1" type="highway.footway" spreadType="center" shape="224.56,200.19 231.37,195.95 262.46,212.98">
        <lane id="39321250#3_0" index="0" allow="pedestrian" speed="2.78" length="38.74" width="2.00" shape="226.88,198.74 231.37,195.95 260.71,212.02"/>
    </edge>
    <edge id="39514600" from="473379864" to="6806334402" priority="1" type="highway.footway" spreadType="center">
        <lane id="39514600_0" index="0" allow="pedestrian" speed="2.78" length="11.80" width="2.00" shape="211.51,212.06 217.82,222.03"/>
    </edge>
    <edge id="39514602" from="473379871" to="6806334396" priority="1" type="highway.footway" spreadType="center">