<configuration>
    <net-file value="/Users/Res_proj/Documents/Research/real-world-data/sumoconfig/00.net.xml"/>
</configuration>
